PV_Scenarios/PV_combined/scenario_61_combined/PV_combined90per.txt
New PVSystem.PV_1 phases=1 bus1=G2000SO1800_N274227_sec_4.3 kV=0.24 kVA=6 irradiance=1 Pmpp=5 %cutin=0.1 %cutout=0.1
New PVSystem.PV_2 phases=1 bus1=G2000VI6200_N283684_sec_7.2 kV=0.24 kVA=9.96 irradiance=1 Pmpp=8.3 %cutin=0.1 %cutout=0.1
New PVSystem.PV_3 phases=1 bus1=G2000WM6400_N283824_sec_1.3 kV=0.24 kVA=2.76 irradiance=1 Pmpp=2.3 %cutin=0.1 %cutout=0.1
New PVSystem.PV_4 phases=1 bus1=G2000XM1800_N283834_sec_3.3 kV=0.24 kVA=4.08 irradiance=1 Pmpp=3.4 %cutin=0.1 %cutout=0.1
New PVSystem.PV_5 phases=1 bus1=G2001RB7800_N274248_sec_5.3 kV=0.24 kVA=5.64 irradiance=1 Pmpp=4.7 %cutin=0.1 %cutout=0.1
New PVSystem.PV_6 phases=1 bus1=G2001SB6900_N274277_sec_5.3 kV=0.24 kVA=3.36 irradiance=1 Pmpp=2.8 %cutin=0.1 %cutout=0.1
New PVSystem.PV_7 phases=1 bus1=G2001TG2100_N284104_sec_3.3 kV=0.24 kVA=6.0605 irradiance=1 Pmpp=5.0504 %cutin=0.1 %cutout=0.1
New PVSystem.PV_8 phases=1 bus1=G2001UB2100_N283965_sec_2.3 kV=0.24 kVA=3.12 irradiance=1 Pmpp=2.6 %cutin=0.1 %cutout=0.1
New PVSystem.PV_9 phases=1 bus1=G2001WB8800_N283948_sec_5.3 kV=0.24 kVA=5.4 irradiance=1 Pmpp=4.5 %cutin=0.1 %cutout=0.1
New PVSystem.PV_10 phases=1 bus1=G2001WE0200_N284057_sec_8.3 kV=0.24 kVA=2.88 irradiance=1 Pmpp=2.4 %cutin=0.1 %cutout=0.1
New PVSystem.PV_11 phases=1 bus1=G2001WG8300_N284116_sec_2.3 kV=0.24 kVA=5.52 irradiance=1 Pmpp=4.6 %cutin=0.1 %cutout=0.1
New PVSystem.PV_12 phases=1 bus1=G2001XE2600_N284069_sec_3.1 kV=0.24 kVA=4.32 irradiance=1 Pmpp=3.6 %cutin=0.1 %cutout=0.1
New PVSystem.PV_13 phases=1 bus1=G2001XJ8800_N284203_sec_2.3 kV=0.24 kVA=6 irradiance=1 Pmpp=5 %cutin=0.1 %cutout=0.1
New PVSystem.PV_14 phases=1 bus1=G2100AH6800_N283651_sec_2.3 kV=0.24 kVA=4.08 irradiance=1 Pmpp=3.4 %cutin=0.1 %cutout=0.1
New PVSystem.PV_15 phases=1 bus1=G2100AM6300_N283820_sec_2.1 kV=0.24 kVA=2.88 irradiance=1 Pmpp=2.4 %cutin=0.1 %cutout=0.1
New PVSystem.PV_16 phases=1 bus1=G2100AN4700_N283855_sec_1.3 kV=0.24 kVA=5.16 irradiance=1 Pmpp=4.3 %cutin=0.1 %cutout=0.1
New PVSystem.PV_17 phases=1 bus1=G2100CG0300_N283590_sec_8.3 kV=0.24 kVA=2.88 irradiance=1 Pmpp=2.4 %cutin=0.1 %cutout=0.1
New PVSystem.PV_18 phases=1 bus1=G2100CO8200_N283869_sec_10.3 kV=0.24 kVA=2.4 irradiance=1 Pmpp=2 %cutin=0.1 %cutout=0.1
New PVSystem.PV_19 phases=1 bus1=G2100DG1300_N283601_sec_15.3 kV=0.24 kVA=3.24 irradiance=1 Pmpp=2.7 %cutin=0.1 %cutout=0.1
New PVSystem.PV_20 phases=1 bus1=G2100DN4800_N283861_sec_12.3 kV=0.24 kVA=0.96 irradiance=1 Pmpp=0.8 %cutin=0.1 %cutout=0.1
New PVSystem.PV_21 phases=1 bus1=G2100EG8500_N292275_sec_7.3 kV=0.24 kVA=2.28 irradiance=1 Pmpp=1.9 %cutin=0.1 %cutout=0.1
New PVSystem.PV_22 phases=3 conn = delta bus1=G2100EG8700_N292270_sec_7.1.2.3 kV=0.48 kVA=34.68 irradiance=1 Pmpp=28.9 %cutin=0.1 %cutout=0.1
New PVSystem.PV_23 phases=1 bus1=G2100EM2500_N292390_sec_2.2 kV=0.24 kVA=6.24 irradiance=1 Pmpp=5.2 %cutin=0.1 %cutout=0.1
New PVSystem.PV_24 phases=1 bus1=G2100EN2200_N292457_sec_30.3 kV=0.24 kVA=1.08 irradiance=1 Pmpp=0.9 %cutin=0.1 %cutout=0.1
New PVSystem.PV_25 phases=3 conn = delta bus1=G2100FE2600_N292234_sec_5.1.2.3 kV=0.48 kVA=37.32 irradiance=1 Pmpp=31.1 %cutin=0.1 %cutout=0.1
New PVSystem.PV_26 phases=3 conn = delta bus1=G2100FE2600_N292234_sec_10.1.2.3 kV=0.48 kVA=1.32 irradiance=1 Pmpp=1.1 %cutin=0.1 %cutout=0.1
New PVSystem.PV_27 phases=3 conn = delta bus1=G2100FF2000_N292242_sec_1.1.2.3 kV=0.48 kVA=78 irradiance=1 Pmpp=65 %cutin=0.1 %cutout=0.1
New PVSystem.PV_28 phases=1 bus1=G2100GH2300_N292309_sec_1.3 kV=0.24 kVA=9.831 irradiance=1 Pmpp=8.1925 %cutin=0.1 %cutout=0.1
New PVSystem.PV_29 phases=3 conn = delta bus1=G2100GM1700_N292446_sec_4.1.2.3 kV=0.48 kVA=0 irradiance=1 Pmpp=0 %cutin=0.1 %cutout=0.1
New PVSystem.PV_30 phases=1 bus1=G2100GN0400_N292471_sec_1.1 kV=0.24 kVA=1.92 irradiance=1 Pmpp=1.6 %cutin=0.1 %cutout=0.1
New PVSystem.PV_31 phases=1 bus1=G2100GN0400_N292471_sec_3.1 kV=0.24 kVA=3.84 irradiance=1 Pmpp=3.2 %cutin=0.1 %cutout=0.1
New PVSystem.PV_32 phases=1 bus1=G2100HM9900_N292433_sec_32.3 kV=0.24 kVA=2.04 irradiance=1 Pmpp=1.7 %cutin=0.1 %cutout=0.1
New PVSystem.PV_33 phases=1 bus1=G2100IM6700_N292430_sec_2.3 kV=0.24 kVA=3 irradiance=1 Pmpp=2.5 %cutin=0.1 %cutout=0.1
New PVSystem.PV_34 phases=1 bus1=G2100IM6700_N292430_sec_4.3 kV=0.24 kVA=0.48 irradiance=1 Pmpp=0.4 %cutin=0.1 %cutout=0.1
New PVSystem.PV_35 phases=1 bus1=G2100ON7400_N300547_sec_1.1 kV=0.24 kVA=4.68 irradiance=1 Pmpp=3.9 %cutin=0.1 %cutout=0.1
New PVSystem.PV_36 phases=1 bus1=G2100QM2700_N300529_sec_7.2 kV=0.24 kVA=7.56 irradiance=1 Pmpp=6.3 %cutin=0.1 %cutout=0.1
New PVSystem.PV_37 phases=1 bus1=G2100QO8900_N300587_sec_9.2 kV=0.24 kVA=10.32 irradiance=1 Pmpp=8.6 %cutin=0.1 %cutout=0.1
New PVSystem.PV_38 phases=1 bus1=G2100QP2300_N300614_sec_4.1 kV=0.24 kVA=5.8112 irradiance=1 Pmpp=4.8427 %cutin=0.1 %cutout=0.1
New PVSystem.PV_39 phases=1 bus1=G2100RN9500_N312395_sec_10.3 kV=0.24 kVA=5.52 irradiance=1 Pmpp=4.6 %cutin=0.1 %cutout=0.1
New PVSystem.PV_40 phases=1 bus1=G2100RO0400_N300576_sec_7.3 kV=0.24 kVA=3 irradiance=1 Pmpp=2.5 %cutin=0.1 %cutout=0.1
New PVSystem.PV_41 phases=1 bus1=G2100SP2100_N312536_sec_4.2 kV=0.24 kVA=3.24 irradiance=1 Pmpp=2.7 %cutin=0.1 %cutout=0.1
New PVSystem.PV_42 phases=1 bus1=G2100TO1000_N312424_sec_4.2 kV=0.24 kVA=5.64 irradiance=1 Pmpp=4.7 %cutin=0.1 %cutout=0.1
New PVSystem.PV_43 phases=1 bus1=G2101AB4600_N283913_sec_3.3 kV=0.24 kVA=2.16 irradiance=1 Pmpp=1.8 %cutin=0.1 %cutout=0.1
New PVSystem.PV_44 phases=1 bus1=G2101AB4600_N283913_sec_4.3 kV=0.24 kVA=3.96 irradiance=1 Pmpp=3.3 %cutin=0.1 %cutout=0.1
New PVSystem.PV_45 phases=1 bus1=G2101AB4600_N283913_sec_6.3 kV=0.24 kVA=1.68 irradiance=1 Pmpp=1.4 %cutin=0.1 %cutout=0.1
New PVSystem.PV_46 phases=1 bus1=G2101AC8300_N283970_sec_1.2 kV=0.24 kVA=6.84 irradiance=1 Pmpp=5.7 %cutin=0.1 %cutout=0.1
New PVSystem.PV_47 phases=1 bus1=G2101AH4300_N284128_sec_2.3 kV=0.24 kVA=4.56 irradiance=1 Pmpp=3.8 %cutin=0.1 %cutout=0.1
New PVSystem.PV_48 phases=1 bus1=G2101CB7700_N283923_sec_8.1 kV=0.24 kVA=4.2 irradiance=1 Pmpp=3.5 %cutin=0.1 %cutout=0.1
New PVSystem.PV_49 phases=1 bus1=G2101DB9200_N283929_sec_2.1 kV=0.24 kVA=4.68 irradiance=1 Pmpp=3.9 %cutin=0.1 %cutout=0.1
New PVSystem.PV_50 phases=1 bus1=G2101DD6700_N284032_sec_2.1 kV=0.24 kVA=4.2 irradiance=1 Pmpp=3.5 %cutin=0.1 %cutout=0.1
New PVSystem.PV_51 phases=1 bus1=G2101DD6900_N284041_sec_4.2 kV=0.24 kVA=6.24 irradiance=1 Pmpp=5.2 %cutin=0.1 %cutout=0.1
New PVSystem.PV_52 phases=1 bus1=G2101EE3400_N284041_sec_1.2 kV=0.24 kVA=9.1162 irradiance=1 Pmpp=7.5969 %cutin=0.1 %cutout=0.1
New PVSystem.PV_53 phases=1 bus1=G2101FC8400_N292612_sec_21.2 kV=0.24 kVA=2.88 irradiance=1 Pmpp=2.4 %cutin=0.1 %cutout=0.1
New PVSystem.PV_54 phases=1 bus1=G2101FD9100_N292643_sec_13.1 kV=0.24 kVA=4.08 irradiance=1 Pmpp=3.4 %cutin=0.1 %cutout=0.1
New PVSystem.PV_55 phases=3 conn = delta bus1=G2101GA6800_N292554_sec_5.1.2.3 kV=0.48 kVA=21.96 irradiance=1 Pmpp=18.3 %cutin=0.1 %cutout=0.1
New PVSystem.PV_56 phases=1 bus1=G2101GD1300_N292637_sec_16.1 kV=0.24 kVA=3.6 irradiance=1 Pmpp=3 %cutin=0.1 %cutout=0.1
New PVSystem.PV_57 phases=1 bus1=G2101GD6200_N292642_sec_18.1 kV=0.24 kVA=2.16 irradiance=1 Pmpp=1.8 %cutin=0.1 %cutout=0.1
New PVSystem.PV_58 phases=1 bus1=G2101HC2500_N292626_sec_2.1 kV=0.24 kVA=6.72 irradiance=1 Pmpp=5.6 %cutin=0.1 %cutout=0.1
New PVSystem.PV_59 phases=1 bus1=G2101HI2400_N292772_sec_1.2 kV=0.24 kVA=7.0727 irradiance=1 Pmpp=5.8939 %cutin=0.1 %cutout=0.1
New PVSystem.PV_60 phases=1 bus1=G2101IJ4900_N292825_sec_4.3 kV=0.24 kVA=5.04 irradiance=1 Pmpp=4.2 %cutin=0.1 %cutout=0.1
New PVSystem.PV_61 phases=1 bus1=G2101JE7500_N300801_sec_4.1 kV=0.24 kVA=8.16 irradiance=1 Pmpp=6.8 %cutin=0.1 %cutout=0.1
New PVSystem.PV_62 phases=1 bus1=G2101JF1200_N292702_sec_5.1 kV=0.24 kVA=6.4145 irradiance=1 Pmpp=5.3454 %cutin=0.1 %cutout=0.1
New PVSystem.PV_63 phases=1 bus1=G2101JF1900_N292709_sec_3.1 kV=0.24 kVA=6.6 irradiance=1 Pmpp=5.5 %cutin=0.1 %cutout=0.1
New PVSystem.PV_64 phases=1 bus1=G2101KA0900_N300672_sec_3.1 kV=0.24 kVA=3.36 irradiance=1 Pmpp=2.8 %cutin=0.1 %cutout=0.1
New PVSystem.PV_65 phases=1 bus1=G2101KA2300_N300631_sec_19.1 kV=0.24 kVA=2.4 irradiance=1 Pmpp=2 %cutin=0.1 %cutout=0.1
New PVSystem.PV_66 phases=1 bus1=G2101KA2300_N300631_sec_20.1 kV=0.24 kVA=3.96 irradiance=1 Pmpp=3.3 %cutin=0.1 %cutout=0.1
New PVSystem.PV_67 phases=1 bus1=G2101OA1800_N300620_sec_6.3 kV=0.24 kVA=5.16 irradiance=1 Pmpp=4.3 %cutin=0.1 %cutout=0.1
New PVSystem.PV_68 phases=1 bus1=G2101OB2900_N300670_sec_5.3 kV=0.24 kVA=5.16 irradiance=1 Pmpp=4.3 %cutin=0.1 %cutout=0.1
New PVSystem.PV_69 phases=1 bus1=G2101OP2300_N300646_sec_5.1 kV=0.24 kVA=3.24 irradiance=1 Pmpp=2.7 %cutin=0.1 %cutout=0.1
New PVSystem.PV_70 phases=1 bus1=G2101PB2500_N300719_sec_5.3 kV=0.24 kVA=4.1128 irradiance=1 Pmpp=3.4273 %cutin=0.1 %cutout=0.1
New PVSystem.PV_71 phases=1 bus1=G2101PB5100_N300681_sec_1.1 kV=0.24 kVA=8.28 irradiance=1 Pmpp=6.9 %cutin=0.1 %cutout=0.1
New PVSystem.PV_72 phases=1 bus1=G2101QB4300_N300711_sec_6.3 kV=0.24 kVA=3.12 irradiance=1 Pmpp=2.6 %cutin=0.1 %cutout=0.1
New PVSystem.PV_73 phases=1 bus1=G2101RA0900_N300678_sec_5.1 kV=0.24 kVA=3.84 irradiance=1 Pmpp=3.2 %cutin=0.1 %cutout=0.1
New PVSystem.PV_74 phases=1 bus1=G2101RA8200_N312510_sec_9.3 kV=0.24 kVA=3.12 irradiance=1 Pmpp=2.6 %cutin=0.1 %cutout=0.1
New PVSystem.PV_75 phases=1 bus1=G2101TA3200_N312486_sec_3.2 kV=0.24 kVA=6 irradiance=1 Pmpp=5 %cutin=0.1 %cutout=0.1
New PVSystem.PV_76 phases=1 bus1=G2102CB9700_N284330_sec_1.1 kV=0.24 kVA=2.88 irradiance=1 Pmpp=2.4 %cutin=0.1 %cutout=0.1
New PVSystem.PV_77 phases=1 bus1=G2102CB9700_N284330_sec_4.1 kV=0.24 kVA=4.44 irradiance=1 Pmpp=3.7 %cutin=0.1 %cutout=0.1
New PVSystem.PV_78 phases=1 bus1=G2102DE7300_N284356_sec_3.1 kV=0.24 kVA=8.284 irradiance=1 Pmpp=6.9034 %cutin=0.1 %cutout=0.1
New PVSystem.PV_79 phases=1 bus1=G2000SO2200_N274207_sec_5.3 kV=0.24 kVA=5.28 irradiance=1 Pmpp=4.4 %cutin=0.1 %cutout=0.1
New PVSystem.PV_80 phases=1 bus1=G2000UI5400_N283699_sec_2.3 kV=0.24 kVA=7.32 irradiance=1 Pmpp=6.1 %cutin=0.1 %cutout=0.1
New PVSystem.PV_81 phases=1 bus1=G2000UI6400_N283679_sec_1.3 kV=0.24 kVA=3.12 irradiance=1 Pmpp=2.6 %cutin=0.1 %cutout=0.1
New PVSystem.PV_82 phases=1 bus1=G2000UJ0800_N283722_sec_3.3 kV=0.24 kVA=3.2662 irradiance=1 Pmpp=2.7219 %cutin=0.1 %cutout=0.1
New PVSystem.PV_83 phases=1 bus1=G2000UJ6500_N283747_sec_3.2 kV=0.24 kVA=4.8 irradiance=1 Pmpp=4 %cutin=0.1 %cutout=0.1
New PVSystem.PV_84 phases=1 bus1=G2000UJ6500_N283747_sec_5.2 kV=0.24 kVA=4.8686 irradiance=1 Pmpp=4.0571 %cutin=0.1 %cutout=0.1
New PVSystem.PV_85 phases=1 bus1=G2000UK1100_N283753_sec_2.3 kV=0.24 kVA=3.24 irradiance=1 Pmpp=2.7 %cutin=0.1 %cutout=0.1
New PVSystem.PV_86 phases=1 bus1=G2000VH9500_N283675_sec_8.2 kV=0.24 kVA=6.24 irradiance=1 Pmpp=5.2 %cutin=0.1 %cutout=0.1
New PVSystem.PV_87 phases=1 bus1=G2000WI4400_N283710_sec_5.2 kV=0.24 kVA=6.36 irradiance=1 Pmpp=5.3 %cutin=0.1 %cutout=0.1
New PVSystem.PV_88 phases=1 bus1=G2000WK8200_N283746_sec_1.2 kV=0.24 kVA=6.48 irradiance=1 Pmpp=5.4 %cutin=0.1 %cutout=0.1
New PVSystem.PV_89 phases=1 bus1=G2000XH7500_N283636_sec_1.3 kV=0.24 kVA=2.88 irradiance=1 Pmpp=2.4 %cutin=0.1 %cutout=0.1
New PVSystem.PV_90 phases=1 bus1=G2000XN2900_N283859_sec_2.3 kV=0.24 kVA=4.44 irradiance=1 Pmpp=3.7 %cutin=0.1 %cutout=0.1
New PVSystem.PV_91 phases=1 bus1=G2000XN7400_N283885_sec_3.3 kV=0.24 kVA=3.24 irradiance=1 Pmpp=2.7 %cutin=0.1 %cutout=0.1
New PVSystem.PV_92 phases=1 bus1=G2001RH4100_N274394_sec_8.2 kV=0.24 kVA=6.12 irradiance=1 Pmpp=5.1 %cutin=0.1 %cutout=0.1
New PVSystem.PV_93 phases=1 bus1=G2001SH1900_N1347089_sec_1.1 kV=0.24 kVA=7.08 irradiance=1 Pmpp=5.9 %cutin=0.1 %cutout=0.1
New PVSystem.PV_94 phases=1 bus1=G2001SH1900_N1347089_sec_2.1 kV=0.24 kVA=5.76 irradiance=1 Pmpp=4.8 %cutin=0.1 %cutout=0.1
New PVSystem.PV_95 phases=1 bus1=G2001SH3700_N274411_sec_2.1 kV=0.24 kVA=3.96 irradiance=1 Pmpp=3.3 %cutin=0.1 %cutout=0.1
New PVSystem.PV_96 phases=1 bus1=G2001SI5500_N274436_sec_5.1 kV=0.24 kVA=4.56 irradiance=1 Pmpp=3.8 %cutin=0.1 %cutout=0.1
New PVSystem.PV_97 phases=1 bus1=G2001SL0100_N274540_sec_2.2 kV=0.24 kVA=5.76 irradiance=1 Pmpp=4.8 %cutin=0.1 %cutout=0.1
New PVSystem.PV_98 phases=1 bus1=G2001VD6400_N283955_sec_2.3 kV=0.24 kVA=5.64 irradiance=1 Pmpp=4.7 %cutin=0.1 %cutout=0.1
New PVSystem.PV_99 phases=1 bus1=G2001VI5200_N284181_sec_2.2 kV=0.24 kVA=10.6022 irradiance=1 Pmpp=8.8352 %cutin=0.1 %cutout=0.1
New PVSystem.PV_100 phases=1 bus1=G2001XB6700_N283943_sec_5.3 kV=0.24 kVA=2.04 irradiance=1 Pmpp=1.7 %cutin=0.1 %cutout=0.1
New PVSystem.PV_101 phases=1 bus1=G2001XC3700_N283971_sec_1.3 kV=0.24 kVA=8.4 irradiance=1 Pmpp=7 %cutin=0.1 %cutout=0.1
New PVSystem.PV_102 phases=1 bus1=G2001XF9200_N284087_sec_1.3 kV=0.24 kVA=3.12 irradiance=1 Pmpp=2.6 %cutin=0.1 %cutout=0.1
New PVSystem.PV_103 phases=1 bus1=G2100AL3200_N283770_sec_3.1 kV=0.24 kVA=3.84 irradiance=1 Pmpp=3.2 %cutin=0.1 %cutout=0.1
New PVSystem.PV_104 phases=1 bus1=G2100CN4000_N283847_sec_6.3 kV=0.24 kVA=2.88 irradiance=1 Pmpp=2.4 %cutin=0.1 %cutout=0.1
New PVSystem.PV_105 phases=1 bus1=G2100DG6300_N283589_sec_3.3 kV=0.24 kVA=2.4 irradiance=1 Pmpp=2 %cutin=0.1 %cutout=0.1
New PVSystem.PV_106 phases=1 bus1=G2100EM2500_N292390_sec_7.2 kV=0.24 kVA=6.48 irradiance=1 Pmpp=5.4 %cutin=0.1 %cutout=0.1
New PVSystem.PV_107 phases=1 bus1=G2100EN7100_N292449_sec_2.3 kV=0.24 kVA=3.72 irradiance=1 Pmpp=3.1 %cutin=0.1 %cutout=0.1
New PVSystem.PV_108 phases=3 conn = delta bus1=G2100FE5400_N292228_sec_1.1.2.3 kV=0.48 kVA=42.96 irradiance=1 Pmpp=35.8 %cutin=0.1 %cutout=0.1
New PVSystem.PV_109 phases=1 bus1=G2100FI2200_N292320_sec_5.2 kV=0.24 kVA=4.44 irradiance=1 Pmpp=3.7 %cutin=0.1 %cutout=0.1
New PVSystem.PV_110 phases=1 bus1=G2100FJ2800_N292373_sec_3.2 kV=0.24 kVA=5.4 irradiance=1 Pmpp=4.5 %cutin=0.1 %cutout=0.1
New PVSystem.PV_111 phases=1 bus1=G2100FK9800_N292385_sec_5.1 kV=0.24 kVA=2.28 irradiance=1 Pmpp=1.9 %cutin=0.1 %cutout=0.1
New PVSystem.PV_112 phases=1 bus1=G2100FO1600_N292502_sec_3.3 kV=0.24 kVA=0.84 irradiance=1 Pmpp=0.7 %cutin=0.1 %cutout=0.1
New PVSystem.PV_113 phases=1 bus1=G2100FO1600_N292502_sec_4.3 kV=0.24 kVA=1.68 irradiance=1 Pmpp=1.4 %cutin=0.1 %cutout=0.1
New PVSystem.PV_114 phases=3 conn = delta bus1=G2100GM1700_N292446_sec_2.1.2.3 kV=0.48 kVA=24.84 irradiance=1 Pmpp=20.7 %cutin=0.1 %cutout=0.1
New PVSystem.PV_115 phases=1 bus1=G2100GM9700_N292423_sec_6.3 kV=0.24 kVA=4.2 irradiance=1 Pmpp=3.5 %cutin=0.1 %cutout=0.1
New PVSystem.PV_116 phases=1 bus1=G2100GM9700_N292423_sec_9.3 kV=0.24 kVA=2.64 irradiance=1 Pmpp=2.2 %cutin=0.1 %cutout=0.1
New PVSystem.PV_117 phases=1 bus1=G2100GN7300_N292464_sec_9.1 kV=0.24 kVA=6.96 irradiance=1 Pmpp=5.8 %cutin=0.1 %cutout=0.1
New PVSystem.PV_118 phases=1 bus1=G2100GO6100_N292504_sec_6.1 kV=0.24 kVA=5.88 irradiance=1 Pmpp=4.9 %cutin=0.1 %cutout=0.1
New PVSystem.PV_119 phases=1 bus1=G2100HM9900_N292433_sec_21.3 kV=0.24 kVA=1.32 irradiance=1 Pmpp=1.1 %cutin=0.1 %cutout=0.1
New PVSystem.PV_120 phases=3 conn = delta bus1=G2100HN2600_N292488_sec_8.1.2.3 kV=0.48 kVA=1.08 irradiance=1 Pmpp=0.9 %cutin=0.1 %cutout=0.1
New PVSystem.PV_121 phases=1 bus1=G2100HN5600_N292453_sec_17.3 kV=0.24 kVA=0.72 irradiance=1 Pmpp=0.6 %cutin=0.1 %cutout=0.1
New PVSystem.PV_122 phases=1 bus1=G2100HN5600_N292453_sec_67.3 kV=0.24 kVA=1.32 irradiance=1 Pmpp=1.1 %cutin=0.1 %cutout=0.1
New PVSystem.PV_123 phases=1 bus1=G2100IN7700_N292438_sec_9.3 kV=0.24 kVA=2.4 irradiance=1 Pmpp=2 %cutin=0.1 %cutout=0.1
New PVSystem.PV_124 phases=1 bus1=G2100IN7700_N292438_sec_19.3 kV=0.24 kVA=2.04 irradiance=1 Pmpp=1.7 %cutin=0.1 %cutout=0.1
New PVSystem.PV_125 phases=1 bus1=G2100IN7700_N292438_sec_23.3 kV=0.24 kVA=0.48 irradiance=1 Pmpp=0.4 %cutin=0.1 %cutout=0.1
New PVSystem.PV_126 phases=1 bus1=G2100IN7700_N292438_sec_27.3 kV=0.24 kVA=2.04 irradiance=1 Pmpp=1.7 %cutin=0.1 %cutout=0.1
New PVSystem.PV_127 phases=1 bus1=G2100NJ7400_N300463_sec_5.1 kV=0.24 kVA=11.64 irradiance=1 Pmpp=9.7 %cutin=0.1 %cutout=0.1
New PVSystem.PV_128 phases=1 bus1=G2100PO1400_N300580_sec_3.1 kV=0.24 kVA=3.96 irradiance=1 Pmpp=3.3 %cutin=0.1 %cutout=0.1
New PVSystem.PV_129 phases=1 bus1=G2100PO1400_N300580_sec_9.1 kV=0.24 kVA=4.44 irradiance=1 Pmpp=3.7 %cutin=0.1 %cutout=0.1
New PVSystem.PV_130 phases=1 bus1=G2100QM2700_N300529_sec_6.2 kV=0.24 kVA=6.12 irradiance=1 Pmpp=5.1 %cutin=0.1 %cutout=0.1
New PVSystem.PV_131 phases=1 bus1=G2100QO0700_N300609_sec_3.1 kV=0.24 kVA=6.84 irradiance=1 Pmpp=5.7 %cutin=0.1 %cutout=0.1
New PVSystem.PV_132 phases=1 bus1=G2100QO6100_N300566_sec_6.2 kV=0.24 kVA=6.72 irradiance=1 Pmpp=5.6 %cutin=0.1 %cutout=0.1
New PVSystem.PV_133 phases=1 bus1=G2100QP2300_N300614_sec_5.1 kV=0.24 kVA=2.52 irradiance=1 Pmpp=2.1 %cutin=0.1 %cutout=0.1
New PVSystem.PV_134 phases=1 bus1=G2101AC1300_N283976_sec_2.2 kV=0.24 kVA=6.6542 irradiance=1 Pmpp=5.5451 %cutin=0.1 %cutout=0.1
New PVSystem.PV_135 phases=1 bus1=G2101DH1100_N284130_sec_1.3 kV=0.24 kVA=7.68 irradiance=1 Pmpp=6.4 %cutin=0.1 %cutout=0.1
New PVSystem.PV_136 phases=1 bus1=G2101EB5200_N292564_sec_4.1 kV=0.24 kVA=5.88 irradiance=1 Pmpp=4.9 %cutin=0.1 %cutout=0.1
New PVSystem.PV_137 phases=3 conn = delta bus1=G2101FB7500_N292570_sec_1.1.2.3 kV=0.48 kVA=181.32 irradiance=1 Pmpp=151.1 %cutin=0.1 %cutout=0.1
New PVSystem.PV_138 phases=1 bus1=G2101FC8400_N292612_sec_7.2 kV=0.24 kVA=3 irradiance=1 Pmpp=2.5 %cutin=0.1 %cutout=0.1
New PVSystem.PV_139 phases=1 bus1=G2101FO4700_N292875_sec_4.2 kV=0.24 kVA=11.04 irradiance=1 Pmpp=9.2 %cutin=0.1 %cutout=0.1
New PVSystem.PV_140 phases=1 bus1=G2101GC3400_N292625_sec_11.1 kV=0.24 kVA=1.08 irradiance=1 Pmpp=0.9 %cutin=0.1 %cutout=0.1
New PVSystem.PV_141 phases=1 bus1=G2101GC9700_N292633_sec_1.1 kV=0.24 kVA=3.48 irradiance=1 Pmpp=2.9 %cutin=0.1 %cutout=0.1
New PVSystem.PV_142 phases=1 bus1=G2101GC9700_N292633_sec_20.1 kV=0.24 kVA=1.56 irradiance=1 Pmpp=1.3 %cutin=0.1 %cutout=0.1
New PVSystem.PV_143 phases=1 bus1=G2101GD6200_N292642_sec_3.1 kV=0.24 kVA=3.6 irradiance=1 Pmpp=3 %cutin=0.1 %cutout=0.1
New PVSystem.PV_144 phases=1 bus1=G2101GD9500_N292651_sec_1.1 kV=0.24 kVA=2.88 irradiance=1 Pmpp=2.4 %cutin=0.1 %cutout=0.1
New PVSystem.PV_145 phases=1 bus1=G2101HB3500_N292585_sec_2.1 kV=0.24 kVA=4.2 irradiance=1 Pmpp=3.5 %cutin=0.1 %cutout=0.1
New PVSystem.PV_146 phases=1 bus1=G2101HB3800_N292598_sec_9.1 kV=0.24 kVA=3.72 irradiance=1 Pmpp=3.1 %cutin=0.1 %cutout=0.1
New PVSystem.PV_147 phases=1 bus1=G2101HD2500_N292652_sec_2.1 kV=0.24 kVA=2.64 irradiance=1 Pmpp=2.2 %cutin=0.1 %cutout=0.1
New PVSystem.PV_148 phases=1 bus1=G2101HD3500_N292652_sec_18.1 kV=0.24 kVA=5.5088 irradiance=1 Pmpp=4.5906 %cutin=0.1 %cutout=0.1
New PVSystem.PV_149 phases=1 bus1=G2101JF1200_N292702_sec_3.1 kV=0.24 kVA=3.48 irradiance=1 Pmpp=2.9 %cutin=0.1 %cutout=0.1
New PVSystem.PV_150 phases=1 bus1=G2101KA3900_N300679_sec_19.1 kV=0.24 kVA=3.24 irradiance=1 Pmpp=2.7 %cutin=0.1 %cutout=0.1
New PVSystem.PV_151 phases=1 bus1=G2101KA6200_N300623_sec_8.1 kV=0.24 kVA=3 irradiance=1 Pmpp=2.5 %cutin=0.1 %cutout=0.1
New PVSystem.PV_152 phases=1 bus1=G2101PC1800_N300764_sec_1.3 kV=0.24 kVA=3.24 irradiance=1 Pmpp=2.7 %cutin=0.1 %cutout=0.1
New PVSystem.PV_153 phases=1 bus1=G2101QB0400_N300714_sec_1.3 kV=0.24 kVA=6.24 irradiance=1 Pmpp=5.2 %cutin=0.1 %cutout=0.1
New PVSystem.PV_154 phases=1 bus1=G2101QB4300_N300711_sec_3.3 kV=0.24 kVA=3.12 irradiance=1 Pmpp=2.6 %cutin=0.1 %cutout=0.1
New PVSystem.PV_155 phases=1 bus1=G2102AE4600_N284351_sec_2.1 kV=0.24 kVA=17.04 irradiance=1 Pmpp=14.2 %cutin=0.1 %cutout=0.1
New PVSystem.PV_156 phases=1 bus1=G2000VH9500_N283675_sec_10.2 kV=0.24 kVA=6.6 irradiance=1 Pmpp=5.5 %cutin=0.1 %cutout=0.1
New PVSystem.PV_157 phases=1 bus1=G2000VI6200_N283684_sec_12.2 kV=0.24 kVA=5.88 irradiance=1 Pmpp=4.9 %cutin=0.1 %cutout=0.1
New PVSystem.PV_158 phases=1 bus1=G2000XL8000_N283769_sec_4.1 kV=0.24 kVA=3.24 irradiance=1 Pmpp=2.7 %cutin=0.1 %cutout=0.1
New PVSystem.PV_159 phases=1 bus1=G2001RH4100_N274394_sec_5.2 kV=0.24 kVA=11.28 irradiance=1 Pmpp=9.4 %cutin=0.1 %cutout=0.1
New PVSystem.PV_160 phases=1 bus1=G2001RJ3400_N274458_sec_4.2 kV=0.24 kVA=5.16 irradiance=1 Pmpp=4.3 %cutin=0.1 %cutout=0.1
New PVSystem.PV_161 phases=1 bus1=G2001SA1700_N274258_sec_1.3 kV=0.24 kVA=4.32 irradiance=1 Pmpp=3.6 %cutin=0.1 %cutout=0.1
New PVSystem.PV_162 phases=1 bus1=G2001SI5500_N274436_sec_6.1 kV=0.24 kVA=5.76 irradiance=1 Pmpp=4.8 %cutin=0.1 %cutout=0.1
New PVSystem.PV_163 phases=1 bus1=G2001UF3600_N284081_sec_2.3 kV=0.24 kVA=5.04 irradiance=1 Pmpp=4.2 %cutin=0.1 %cutout=0.1
New PVSystem.PV_164 phases=1 bus1=G2001VA3800_N283914_sec_8.3 kV=0.24 kVA=3.84 irradiance=1 Pmpp=3.2 %cutin=0.1 %cutout=0.1
New PVSystem.PV_165 phases=1 bus1=G2001VD8000_N283989_sec_2.3 kV=0.24 kVA=3.36 irradiance=1 Pmpp=2.8 %cutin=0.1 %cutout=0.1
New PVSystem.PV_166 phases=1 bus1=G2001VF9300_N284100_sec_2.3 kV=0.24 kVA=7.68 irradiance=1 Pmpp=6.4 %cutin=0.1 %cutout=0.1
New PVSystem.PV_167 phases=1 bus1=G2001WE0200_N284057_sec_1.3 kV=0.24 kVA=1.08 irradiance=1 Pmpp=0.9 %cutin=0.1 %cutout=0.1
New PVSystem.PV_168 phases=1 bus1=G2001WE0200_N284057_sec_2.3 kV=0.24 kVA=6 irradiance=1 Pmpp=5 %cutin=0.1 %cutout=0.1
New PVSystem.PV_169 phases=1 bus1=G2100AE4800_N283558_sec_2.3 kV=0.24 kVA=4.32 irradiance=1 Pmpp=3.6 %cutin=0.1 %cutout=0.1
New PVSystem.PV_170 phases=1 bus1=G2100AG2100_N283585_sec_2.3 kV=0.24 kVA=2.76 irradiance=1 Pmpp=2.3 %cutin=0.1 %cutout=0.1
New PVSystem.PV_171 phases=1 bus1=G2100AH6800_N283651_sec_6.3 kV=0.24 kVA=3.24 irradiance=1 Pmpp=2.7 %cutin=0.1 %cutout=0.1
New PVSystem.PV_172 phases=1 bus1=G2100AI4900_N283724_sec_4.2 kV=0.24 kVA=10.9166 irradiance=1 Pmpp=9.0971 %cutin=0.1 %cutout=0.1
New PVSystem.PV_173 phases=1 bus1=G2100AM6700_N283835_sec_3.1 kV=0.24 kVA=3.6 irradiance=1 Pmpp=3 %cutin=0.1 %cutout=0.1
New PVSystem.PV_174 phases=1 bus1=G2100BJ0700_N283696_sec_2.2 kV=0.24 kVA=2.7214 irradiance=1 Pmpp=2.2678 %cutin=0.1 %cutout=0.1
New PVSystem.PV_175 phases=1 bus1=G2100BJ5900_N283761_sec_2.2 kV=0.24 kVA=8.4 irradiance=1 Pmpp=7 %cutin=0.1 %cutout=0.1
New PVSystem.PV_176 phases=1 bus1=G2100BM6500_N283823_sec_1.1 kV=0.24 kVA=4.08 irradiance=1 Pmpp=3.4 %cutin=0.1 %cutout=0.1
New PVSystem.PV_177 phases=1 bus1=G2100CG0300_N283590_sec_2.3 kV=0.24 kVA=2.04 irradiance=1 Pmpp=1.7 %cutin=0.1 %cutout=0.1
New PVSystem.PV_178 phases=1 bus1=G2100DH9500_N292300_sec_1.3 kV=0.24 kVA=3.24 irradiance=1 Pmpp=2.7 %cutin=0.1 %cutout=0.1
New PVSystem.PV_179 phases=1 bus1=G2100DK1500_N283758_sec_7.2 kV=0.24 kVA=5.52 irradiance=1 Pmpp=4.6 %cutin=0.1 %cutout=0.1
New PVSystem.PV_180 phases=1 bus1=G2100DN4800_N283861_sec_3.3 kV=0.24 kVA=1.56 irradiance=1 Pmpp=1.3 %cutin=0.1 %cutout=0.1
New PVSystem.PV_181 phases=1 bus1=G2100DN4800_N283861_sec_38.3 kV=0.24 kVA=3.96 irradiance=1 Pmpp=3.3 %cutin=0.1 %cutout=0.1
New PVSystem.PV_182 phases=1 bus1=G2100EM1500_N292428_sec_2.3 kV=0.24 kVA=4.44 irradiance=1 Pmpp=3.7 %cutin=0.1 %cutout=0.1
New PVSystem.PV_183 phases=1 bus1=G2100EM2500_N292390_sec_3.2 kV=0.24 kVA=4.2 irradiance=1 Pmpp=3.5 %cutin=0.1 %cutout=0.1
New PVSystem.PV_184 phases=1 bus1=G2100EM6500_N292425_sec_2.3 kV=0.24 kVA=2.16 irradiance=1 Pmpp=1.8 %cutin=0.1 %cutout=0.1
New PVSystem.PV_185 phases=1 bus1=G2100EN2200_N292457_sec_2.3 kV=0.24 kVA=4.32 irradiance=1 Pmpp=3.6 %cutin=0.1 %cutout=0.1
New PVSystem.PV_186 phases=1 bus1=G2100EN2200_N292457_sec_3.3 kV=0.24 kVA=2.04 irradiance=1 Pmpp=1.7 %cutin=0.1 %cutout=0.1
New PVSystem.PV_187 phases=1 bus1=G2100EO2100_N292498_sec_4.3 kV=0.24 kVA=0.96 irradiance=1 Pmpp=0.8 %cutin=0.1 %cutout=0.1
New PVSystem.PV_188 phases=3 conn = delta bus1=G2100FJ3800_N292380_sec_2.1.2.3 kV=0.48 kVA=2.88 irradiance=1 Pmpp=2.4 %cutin=0.1 %cutout=0.1
New PVSystem.PV_189 phases=3 conn = delta bus1=G2100FJ3800_N292380_sec_8.1.2.3 kV=0.48 kVA=5.64 irradiance=1 Pmpp=4.7 %cutin=0.1 %cutout=0.1
New PVSystem.PV_190 phases=3 conn = delta bus1=G2100FJ4400_N292396_sec_3.1.2.3 kV=0.48 kVA=16.2 irradiance=1 Pmpp=13.5 %cutin=0.1 %cutout=0.1
New PVSystem.PV_191 phases=1 bus1=G2100FO1600_N292502_sec_2.3 kV=0.24 kVA=0.12 irradiance=1 Pmpp=0.1 %cutin=0.1 %cutout=0.1
New PVSystem.PV_192 phases=3 conn = delta bus1=G2100GM1700_N292446_sec_3.1.2.3 kV=0.48 kVA=9.12 irradiance=1 Pmpp=7.6 %cutin=0.1 %cutout=0.1
New PVSystem.PV_193 phases=3 conn = delta bus1=G2100HI8200_N292329_sec_1.1.2.3 kV=0.48 kVA=53.4399 irradiance=1 Pmpp=44.5333 %cutin=0.1 %cutout=0.1
New PVSystem.PV_194 phases=1 bus1=G2100HM3200_N292420_sec_33.3 kV=0.24 kVA=0.36 irradiance=1 Pmpp=0.3 %cutin=0.1 %cutout=0.1
New PVSystem.PV_195 phases=1 bus1=G2100HN5600_N292453_sec_66.3 kV=0.24 kVA=2.28 irradiance=1 Pmpp=1.9 %cutin=0.1 %cutout=0.1
New PVSystem.PV_196 phases=1 bus1=G2100IL1000_N292412_sec_1.3 kV=0.24 kVA=1.68 irradiance=1 Pmpp=1.4 %cutin=0.1 %cutout=0.1
New PVSystem.PV_197 phases=1 bus1=G2100IM6700_N292430_sec_1.3 kV=0.24 kVA=2.88 irradiance=1 Pmpp=2.4 %cutin=0.1 %cutout=0.1
New PVSystem.PV_198 phases=1 bus1=G2100NJ7400_N300463_sec_2.1 kV=0.24 kVA=1.44 irradiance=1 Pmpp=1.2 %cutin=0.1 %cutout=0.1
New PVSystem.PV_199 phases=1 bus1=G2100NL6900_N300504_sec_6.1 kV=0.24 kVA=4.08 irradiance=1 Pmpp=3.4 %cutin=0.1 %cutout=0.1
New PVSystem.PV_200 phases=1 bus1=G2100ON7400_N300547_sec_5.1 kV=0.24 kVA=4.32 irradiance=1 Pmpp=3.6 %cutin=0.1 %cutout=0.1
...
